Info: SIMULATION PARAMETERS:
Info: TIMESTEP               2
Info: NUMBER OF STEPS        0
Info: STEPS PER CYCLE        10
Info: PERIODIC CELL BASIS 1  50 0 0
Info: PERIODIC CELL BASIS 2  0 50 0
Info: PERIODIC CELL BASIS 3  0 0 50
Info: PERIODIC CELL CENTER   0 0 0
Info: WRAPPING WATERS AROUND PERIODIC BOUNDARIES ON OUTPUT.
Info: WRAPPING ALL CLUSTERS AROUND PERIODIC BOUNDARIES ON OUTPUT.
Info: FIRST LDB TIMESTEP     50
Info: LAST LDB TIMESTEP     -1
Info: HOM BACKGROUND SCALING 1
Info: PME BACKGROUND SCALING 1
Info: MIN ATOMS PER PATCH    40
Info: INITIAL TEMPERATURE    300
Info: CENTER OF MASS MOVING INITIALLY? NO
Info: REMOVING CENTER OF MASS DRIFT DURING SIMULATION
Info: DIELECTRIC             1
Info: EXCLUDE                SCALED ONE-FOUR
Info: 1-4 ELECTROSTATICS SCALED BY 1
Info: MODIFIED 1-4 VDW PARAMETERS WILL BE USED
Info: DCD FILENAME           MD300K.dcd
Info: DCD FREQUENCY          500
Info: DCD FIRST STEP         500
Info: DCD FILE WILL CONTAIN UNIT CELL DATA
Info: XST FILENAME           MD300K.xst
Info: XST FREQUENCY          500
Info: NO VELOCITY DCD OUTPUT
Info: NO FORCE DCD OUTPUT
Info: OUTPUT FILENAME        MD300K
Info: BINARY OUTPUT FILES WILL BE USED
Info: RESTART FILENAME       MD300K.restart
Info: RESTART FREQUENCY      5000
Info: BINARY RESTART FILES WILL BE USED
Info: SWITCHING ACTIVE
Info: SWITCHING ON           10
Info: SWITCHING OFF          12
Info: PAIRLIST DISTANCE      14
Info: PAIRLIST SHRINK RATE   0.01
Info: PAIRLIST GROW RATE     0.01
Info: PAIRLIST TRIGGER       0.3
Info: PAIRLISTS PER CYCLE    2
Info: PAIRLISTS ENABLED
Info: MARGIN                 0
Info: HYDROGEN GROUP CUTOFF  2.5
Info: PATCH DIMENSION        16.5
Info: ENERGY OUTPUT STEPS    500
Info: CROSSTERM ENERGY INCLUDED IN DIHEDRAL
Info: TIMING OUTPUT STEPS    5000
Info: PRESSURE OUTPUT STEPS  500
Info: LANGEVIN DYNAMICS ACTIVE
Info: LANGEVIN TEMPERATURE   300
Info: LANGEVIN USING BBK INTEGRATOR
Info: LANGEVIN DAMPING COEFFICIENT IS 1 INVERSE PS
Info: LANGEVIN DYNAMICS NOT APPLIED TO HYDROGENS
Info: PARTICLE MESH EWALD (PME) ACTIVE
Info: PME TOLERANCE               1e-06
Info: PME EWALD COEFFICIENT       0.257952
Info: PME INTERPOLATION ORDER     4
Info: PME GRID DIMENSIONS         54 54 54
Info: PME MAXIMUM GRID SPACING    1
Info: FULL ELECTROSTATIC EVALUATION FREQUENCY      2
Info: USING VERLET I (r-RESPA) MTS SCHEME.
Info: C1 SPLITTING OF LONG RANGE ELECTROSTATICS
Info: PLACING ATOMS IN PATCHES BY HYDROGEN GROUPS
Info: RIGID BONDS TO HYDROGEN : ALL
Info:         ERROR TOLERANCE : 1e-08
Info:          MAX ITERATIONS : 100
Info: RIGID WATER USING SETTLE ALGORITHM
Info: RANDOM NUMBER SEED     1683721591
Info: USE HYDROGEN BONDS?    NO
Info: COORDINATE PDB         ../input/initial_positions.pdb
Info: STRUCTURE FILE         ../input/Au.psf
Info: PARAMETER file: CHARMM format!
Info: PARAMETERS             ../input/FF_gold.inp
Info: USING ARITHMETIC MEAN TO COMBINE L-J SIGMA PARAMETERS
Info: SUMMARY OF PARAMETERS:
Info: 0 BONDS
Info: 0 ANGLES
Info: 0 DIHEDRAL
Info: 0 IMPROPER
Info: 0 CROSSTERM
Info: 1 VDW
Info: 0 VDW_PAIRS
Info: 0 NBTHOLE_PAIRS
Info: STRUCTURE SUMMARY:
Info: 864 ATOMS
Info: 0 BONDS
Info: 0 ANGLES
Info: 0 DIHEDRALS
Info: 0 IMPROPERS
Info: 0 CROSSTERMS
Info: 0 EXCLUSIONS
Info: 0 RIGID BONDS
Info: 2592 DEGREES OF FREEDOM
Info: 864 HYDROGEN GROUPS
Info: 1 ATOMS IN LARGEST HYDROGEN GROUP
Info: 864 MIGRATION GROUPS
Info: 1 ATOMS IN LARGEST MIGRATION GROUP
Info: TOTAL MASS = 170179 amu
Info: TOTAL CHARGE = 0 e
Info: MASS DENSITY = 2.26077 g/cm^3
Info: ATOM DENSITY = 0.006912 atoms/A^3
Info: ADDED 0 IMPLICIT EXCLUSIONS
Info: NONBONDED TABLE R-SQUARED SPACING: 0.0625
Info: NONBONDED TABLE SIZE: 769 POINTS
Info: REMOVING COM VELOCITY 0.0170205 0.00995891 -0.0567211
Info: Updated CUDA force table with 4096 elements.
Info: Updated CUDA LJ table with 1 x 1 elements.
Info: Found 1 unique exclusion lists needing 4 bytes
TCL: Minimizing for 5000 steps
ETITLE: TS BOND ANGLE DIHED IMPRP ELECT VDW BOUNDARY MISC KINETIC TOTAL TEMP POTENTIAL TOTAL3 TEMPAVG PRESSURE GPRESSURE VOLUME PRESSAVG GPRESSAVG
ENERGY: 0 0.0000 0.0000 0.0000 0.0000 0.0000 -30468.6551 0.0000 0.0000 0.0000 -30468.6551 0.0000 -30468.6551 -30468.6551 0.0000 0.0000 -0.0000 125000.0000 0.0000 -0.0000
ENERGY: 1000 0.0000 0.0000 0.0000 0.0000 0.0000 -31150.8005 0.0000 0.0000 0.0000 -31150.8005 0.0000 -31150.8005 -31150.8005 0.0000 0.0000 0.0000 125000.0000 0.0000 0.0000
ENERGY: 2000 0.0000 0.0000 0.0000 0.0000 0.0000 -31150.8005 0.0000 0.0000 0.0000 -31150.8005 0.0000 -31150.8005 -31150.8005 0.0000 0.0000 -0.0000 125000.0000 0.0000 -0.0000
ENERGY: 3000 0.0000 0.0000 0.0000 0.0000 0.0000 -31150.8005 0.0000 0.0000 0.0000 -31150.8005 0.0000 -31150.8005 -31150.8005 0.0000 0.0000 0.0000 125000.0000 0.0000 0.0000
ENERGY: 4000 0.0000 0.0000 0.0000 0.0000 0.0000 -31150.8005 0.0000 0.0000 0.0000 -31150.8005 0.0000 -31150.8005 -31150.8005 0.0000 0.0000 -0.0000 125000.0000 0.0000 -0.0000
ENERGY: 5000 0.0000 0.0000 0.0000 0.0000 0.0000 -31150.8108 0.0000 0.0000 0.0000 -31150.8108 0.0000 -31150.8108 -31150.8108 0.0000 0.0000 0.0000 125000.0000 0.0000 0.0000
TCL: Running for 500000 steps
ETITLE: TS BOND ANGLE DIHED IMPRP ELECT VDW BOUNDARY MISC KINETIC TOTAL TEMP POTENTIAL TOTAL3 TEMPAVG PRESSURE GPRESSURE VOLUME PRESSAVG GPRESSAVG
ENERGY: 5000 0.0000 0.0000 0.0000 0.0000 0.0000 -31150.8108 0.0000 0.0000 0.0000 -31150.8108 0.0000 -31150.8108 -31150.8108 0.0000 -0.6340 -0.6340 125000.0000 -0.6340 -0.6340
ENERGY: 105000 0.0000 0.0000 0.0000 0.0000 0.0000 -30319.8581 0.0000 0.0000 772.3947 -29547.4634 299.9126 -30319.8581 -29546.8070 302.5655 321.9857 321.9857 125000.0000 -184.0850 -184.0850
ENERGY: 205000 0.0000 0.0000 0.0000 0.0000 0.0000 -30312.4910 0.0000 0.0000 794.2816 -29518.2095 308.4110 -30312.4910 -29517.7258 306.0250 -79.8800 -79.8800 125000.0000 7.1085 7.1085
ENERGY: 305000 0.0000 0.0000 0.0000 0.0000 0.0000 -30357.9047 0.0000 0.0000 757.1538 -29600.7508 293.9947 -30357.9047 -29600.5730 295.3054 -228.2495 -228.2495 125000.0000 20.6331 20.6331
ENERGY: 405000 0.0000 0.0000 0.0000 0.0000 0.0000 -30370.7952 0.0000 0.0000 763.6617 -29607.1335 296.5216 -30370.7952 -29606.6779 301.8426 407.7344 407.7344 125000.0000 17.3490 17.3490
ENERGY: 505000 0.0000 0.0000 0.0000 0.0000 0.0000 -30360.3600 0.0000 0.0000 755.1764 -29605.1836 293.2269 -30360.3600 -29603.7724 289.0603 120.2955 120.2955 125000.0000 82.3381 82.3381
